Version 4
SHEET 1 2692 680
WIRE 480 -176 368 -176
WIRE 592 -176 480 -176
WIRE 1008 -176 912 -176
WIRE 592 -128 592 -176
WIRE 592 -128 512 -128
WIRE 208 -112 160 -112
WIRE 592 -112 592 -128
WIRE 1008 -96 1008 -176
WIRE 160 -80 160 -112
WIRE 592 -16 592 -48
WIRE 592 -16 512 -16
WIRE 368 0 368 -176
WIRE 160 16 160 0
WIRE 592 32 592 -16
WIRE 784 32 592 32
WIRE 1008 64 1008 -16
WIRE 1008 64 896 64
WIRE 592 96 592 32
WIRE 784 96 784 32
WIRE 1008 96 1008 64
WIRE 368 144 368 80
WIRE 528 144 368 144
WIRE 896 144 896 64
WIRE 896 144 848 144
WIRE 944 144 896 144
WIRE 208 160 160 160
WIRE 160 192 160 160
WIRE 368 224 368 144
WIRE 592 224 592 192
WIRE 160 288 160 272
WIRE 368 352 368 304
WIRE 592 352 592 304
WIRE 592 352 368 352
WIRE 688 352 592 352
WIRE 784 352 784 192
WIRE 784 352 688 352
WIRE 1008 352 1008 192
WIRE 1008 352 784 352
WIRE 688 384 688 352
FLAG 160 288 0
FLAG 160 16 0
FLAG 688 384 0
FLAG 208 -112 V+
FLAG 208 160 Data
FLAG 912 -176 Data
FLAG 480 -176 V+
FLAG 512 -128 V_D1p
FLAG 512 -16 V_D1n
SYMBOL voltage 160 -96 R0
WINDOW 123 0 0 Left 0
WINDOW 39 0 0 Left 0
SYMATTR InstName V1
SYMATTR Value 5
SYMBOL voltage 160 176 R0
WINDOW 3 -50 -125 VRight 2
WINDOW 123 32 117 Left 2
WINDOW 39 0 0 Left 0
SYMATTR Value PWL file=TX_input.txt
SYMATTR InstName V2
SYMBOL res 352 208 R0
SYMATTR InstName R2
SYMATTR Value 1k
SYMBOL res 576 208 R0
SYMATTR InstName R3
SYMATTR Value 10330
SYMBOL res 352 -16 R0
SYMATTR InstName R1
SYMATTR Value 1k
SYMBOL npn 528 96 R0
SYMATTR InstName Q3
SYMATTR Value 2N2222
SYMBOL npn 848 96 M0
SYMATTR InstName Q2
SYMATTR Value 2N2222
SYMBOL npn 944 96 R0
SYMATTR InstName Q1
SYMATTR Value 2N2222
SYMBOL LED 576 -112 R0
WINDOW 3 22 80 Left 2
SYMATTR Value LedRed
SYMATTR InstName D1
SYMBOL res 992 -112 R0
SYMATTR InstName R4
SYMATTR Value 220
TEXT 80 472 Left 2 !.MODEL LedRed D (IS=100p RS=100m N=3 BV=4 IBV=10U CJO=10p VJ=.75 M=.333 TT=.5u Iave=40m Vpk=4 type=LED)
